mvpmarch-behavior/feederdata/p1uhs0_1247--p1udt104/Lines.dss
New Line.l(r:p1udt2lv-p1ulv3) Units=km Length=0.001 bus1=p1udt2lv.1.2 bus2=p1ulv3.1.2 switch=n enabled=y phases=2 Linecode=1P_OH_AL_4_Periwinkle_0_416_0_2_2

New Line.l(r:p1udt104lv-p1ulv281) Units=km Length=0.00506949 bus1=p1udt104lv.1.2 bus2=p1ulv281.1.2 switch=n enabled=y phases=2 Linecode=1P_OH_AL_2/0_Rucina_0_416_0_2_2

New Line.l(r:p1udt104lv-p1ulv1901) Units=km Length=0.006105780000000001 bus1=p1udt104lv.1.2 bus2=p1ulv1901.1.2 switch=n enabled=y phases=2 Linecode=1P_OH_AL_2/0_Rucina_0_416_0_2_2

New Line.l(r:p1udt260lv-p1ulv649) Units=km Length=0.00798386 bus1=p1udt260lv.1.2 bus2=p1ulv649.1.2 switch=n enabled=y phases=2 Linecode=1P_OH_AL_2/0_Rucina_0_416_0_2_2

New Line.l(r:p1udt471lv-p1ulv1969) Units=km Length=0.0194637 bus1=p1udt471lv.1.2 bus2=p1ulv1969.1.2 switch=n enabled=y phases=2 Linecode=1P_UG_AL_2/0_Converse_0_416_0_2_2

New Line.l(r:p1udt104-p1udt2) Units=km Length=0.03402990000000001 bus1=p1udt104-p1udt2x.2 bus2=p1udt2.2 switch=n enabled=y phases=1 Linecode=1P_OH_AL_ACSR_#2_Sparrow_12_47_0_1_1

New Line.l(r:p1udt201-p1udt471) Units=km Length=0.057382300000000004 bus1=p1udt201-p1udt471xx.2 bus2=p1udt201-p1udt471xxx.2 switch=n enabled=y phases=1 Linecode=1P_UG_AL_#2_15_12_47_0_1_1

New Line.l(r:p1umv10-p1umv5) Units=km Length=0.276962 bus1=p1umv10-p1umv5x.1.2.3 bus2=p1umv10-p1umv5xx.1.2.3 switch=n enabled=y phases=3 Linecode=3P_UG_AL_4/0_25_12_47_0_3_3

New Line.l(r:p1udt62-p1umv10) Units=km Length=0.188854 bus1=p1udt62-p1umv10x.1.2.3 bus2=p1udt62-p1umv10xx.1.2.3 switch=n enabled=y phases=3 Linecode=3P_UG_AL_4/0_25_12_47_0_3_3

New Line.l(r:p1udt259-p1udt260) Units=km Length=0.015936 bus1=p1udt259.1.2.3 bus2=p1udt260.1.2.3 switch=n enabled=y phases=3 Linecode=3P_OH_AL_ACSR_4/0_Penguin_12_47_0_3_3

New Line.l(r:p1udt258-p1udt259) Units=km Length=0.0389798 bus1=p1udt258-p1udt259x.1.2.3 bus2=p1udt259.1.2.3 switch=n enabled=y phases=3 Linecode=3P_OH_AL_ACSR_4/0_Penguin_12_47_0_3_3

New Line.l(r:p1udt258-p1umv9) Units=km Length=0.120264 bus1=p1udt258-p1umv9x.1.2.3 bus2=p1udt258.1.2.3 switch=n enabled=y phases=3 Linecode=3P_OH_AL_ACSR_4/0_Penguin_12_47_0_3_3

New Line.l(r:p1udt61-p1umv9) Units=km Length=0.13748 bus1=p1udt61-p1umv9x.1.2.3 bus2=p1umv9.1.2.3 switch=n enabled=y phases=3 Linecode=3P_OH_AL_ACSR_4/0_Penguin_12_47_0_3_3

New Line.l(r:p1udt61-p1udt62) Units=km Length=0.343359 bus1=p1udt61-p1udt62x.1.2.3 bus2=p1udt61.1.2.3 switch=n enabled=y phases=3 Linecode=3P_OH_AL_ACSR_4/0_Penguin_12_47_0_3_3

New Line.l(r:p1udt228-p1udt62) Units=km Length=0.108336 bus1=p1udt228-p1udt62x.1.2.3 bus2=p1udt62.1.2.3 switch=n enabled=y phases=3 Linecode=3P_OH_AL_ACSR_4/0_Penguin_12_47_0_3_3

New Line.l(r:p1udt104-p1udt228) Units=km Length=0.040401 bus1=p1udt104.1.2.3 bus2=p1udt228.1.2.3 switch=n enabled=y phases=3 Linecode=3P_OH_AL_ACSR_4/0_Penguin_12_47_0_3_3

New Line.l(r:p1udt104-p1uhs0_1247) Units=km Length=0.144601 bus1=p1udt104-p1uhs0_1247x.1.2.3 bus2=p1udt104-p1uhs0_1247x_b1_1.1.2.3 switch=n enabled=y phases=3 Linecode=3P_OH_AL_ACSR_4/0_Penguin_12_47_0_3_3

New Line.l(r:p1udm822-p1ulv579) Units=km Length=0.0022078500000000004 bus1=p1udm822.1.2.3 bus2=p1ulv579.1.2.3 switch=n enabled=y phases=3 Linecode=3P_UG_AL_750kcmil_25_0_416_0_3_3

New Line.l(r:p1udm822-p1udt228lv) Units=km Length=0.017835200000000002 bus1=p1udt228lv.1.2.3 bus2=p1udm822.1.2.3 switch=n enabled=y phases=3 Linecode=3P_UG_AL_750kcmil_25_0_416_0_3_3

New Line.l(r:p1udm823-p1ulv1893) Units=km Length=0.00144461 bus1=p1udm823.1.2.3 bus2=p1ulv1893.1.2.3 switch=n enabled=y phases=3 Linecode=3P_UG_AL_350kcmil_15_0_416_0_3_3

New Line.l(r:p1udm823-p1udt228lv) Units=km Length=0.0178263 bus1=p1udt228lv.1.2.3 bus2=p1udm823.1.2.3 switch=n enabled=y phases=3 Linecode=3P_UG_AL_350kcmil_15_0_416_0_3_3

New Line.l(r:p1udt62lv-p1ulv157) Units=km Length=0.0101512 bus1=p1udt62lv.1.2.3 bus2=p1ulv157.1.2.3 switch=n enabled=y phases=3 Linecode=3P_UG_AL_350kcmil_15_0_416_0_3_3

New Line.l(r:p1udt175lv-p1ulv493) Units=km Length=0.0175693 bus1=p1udt175lv.1.2.3 bus2=p1ulv493.1.2.3 switch=n enabled=y phases=3 Linecode=3P_UG_AL_350kcmil_15_0_416_0_3_3

New Line.l(r:p1udt175-p1umv5) Units=km Length=0.0800674 bus1=p1udt175-p1umv5xx.1.2.3 bus2=p1udt175-p1umv5x.1.2.3 switch=n enabled=y phases=3 Linecode=3P_UG_AL_4/0_25_12_47_0_3_3

New Line.l(r:p1udm721-p1ulv530) Units=km Length=0.0297393 bus1=p1udm721.1.2.3 bus2=p1ulv530.1.2.3 switch=n enabled=y phases=3 Linecode=3P_UG_AL_350kcmil_15_0_416_0_3_3

New Line.l(r:p1udm721-p1udt201lv) Units=km Length=0.036644100000000006 bus1=p1udt201lv.1.2.3 bus2=p1udm721.1.2.3 switch=n enabled=y phases=3 Linecode=3P_UG_AL_350kcmil_15_0_416_0_3_3

New Line.l(r:p1udm722-p1ulv1845) Units=km Length=0.0107134 bus1=p1udm722.1.2.3 bus2=p1ulv1845.1.2.3 switch=n enabled=y phases=3 Linecode=3P_UG_AL_350kcmil_15_0_416_0_3_3

New Line.l(r:p1udm722-p1udt201lv) Units=km Length=0.0277773 bus1=p1udt201lv.1.2.3 bus2=p1udm722.1.2.3 switch=n enabled=y phases=3 Linecode=3P_UG_AL_350kcmil_15_0_416_0_3_3

New Line.l(r:p1udt201-p1udt454) Units=km Length=0.0656279 bus1=p1udt201-p1udt454x.1.2.3 bus2=p1udt201-p1udt454xx.1.2.3 switch=n enabled=y phases=3 Linecode=3P_UG_AL_4/0_25_12_47_0_3_3

New Line.l(r:p1udt201-p1umv5) Units=km Length=0.0861489 bus1=p1udt201-p1umv5xx.1.2.3 bus2=p1udt201-p1umv5x.1.2.3 switch=n enabled=y phases=3 Linecode=3P_UG_AL_4/0_25_12_47_0_3_3

New Line.l(r:p1udt61lv-p1ulv156) Units=km Length=0.0069151 bus1=p1udt61lv.1.2.3 bus2=p1ulv156.1.2.3 switch=n enabled=y phases=3 Linecode=3P_UG_AL_750kcmil_25_0_416_0_3_3

New Line.l(r:p1udt1lv-p1ulv2) Units=km Length=0.00897977 bus1=p1udt1lv.1.2.3 bus2=p1ulv2.1.2.3 switch=n enabled=y phases=3 Linecode=3P_UG_AL_750kcmil_25_0_416_0_3_3

New Line.l(r:p1udt1-p1umv9) Units=km Length=0.0926244 bus1=p1udt1-p1umv9x.1.2.3 bus2=p1udt1.1.2.3 switch=n enabled=y phases=3 Linecode=3P_OH_AL_ACSR_4/0_Penguin_12_47_0_3_3

New Line.l(r:p1udt258lv-p1ulv646) Units=km Length=0.0029187800000000006 bus1=p1udt258lv.1.2.3 bus2=p1ulv646.1.2.3 switch=n enabled=y phases=3 Linecode=3P_UG_AL_350kcmil_15_0_416_0_3_3

New Line.l(r:p1udt259lv-p1ulv647) Units=km Length=0.00626598 bus1=p1udt259lv.1.2.3 bus2=p1ulv647.1.2.3 switch=n enabled=y phases=3 Linecode=3P_UG_AL_750kcmil_25_0_416_0_3_3

New Line.l(r:p1udt260-p1umv3) Units=km Length=0.0740258 bus1=p1udt260.1.2.3 bus2=p1umv3.1.2.3 switch=n enabled=y phases=3 Linecode=3P_OH_AL_ACSR_4/0_Penguin_12_47_0_3_3

New Line.l(r:p1udt104-p1udt212) Units=km Length=0.0817391 bus1=p1udt104-p1udt212x.1.2.3 bus2=p1udt104.1.2.3 switch=n enabled=y phases=3 Linecode=3P_OH_AL_ACSR_1033kcmil_Curlew_12.47_1_3_3

New Line.l(r:p1udt201-p1umv7) Units=km Length=0.184072 bus1=p1udt201-p1umv7x.1.2.3 bus2=p1udt201-p1umv7xx.1.2.3 switch=n enabled=y phases=3 Linecode=3P_OH_AL_ACSR_1033kcmil_Curlew_12.47_1_3_3

New Line.l(r:p1udt175-p1udt258) Units=km Length=0.0943019 bus1=p1udt175-p1udt258xx.1.2.3 bus2=p1udt175-p1udt258x.1.2.3 switch=n enabled=y phases=3 Linecode=3P_OH_AL_ACSR_1033kcmil_Curlew_12.47_1_3_3

New Line.l(r:p1udt258-p1udt447) Units=km Length=0.28457 bus1=p1udt258-p1udt447xx.1.2.3 bus2=p1udt258-p1udt447x.1.2.3 switch=n enabled=y phases=3 Linecode=3P_OH_AL_ACSR_1033kcmil_Curlew_12.47_1_3_3

New Line.l(r:p1udt454lv-p1ulv1912)p1ud1 Units=km Length=0.0189232 bus1=p1udt454lv.1.2.3 bus2=p1ulv1912.1.2.3 switch=n enabled=y phases=3 Linecode=3P_UG_AL_750kcmil_25_0_416_0_3_3

New Line.padswitch(r:p1udt201-p1udt471)p1u_9171 Units=km Length=0.001 bus1=p1udt201-p1udt471x.2 bus2=p1udt201-p1udt471xx.2 switch=y enabled=y phases=1 Linecode=padswitch_1_1

New Line.padswitch(r:p1udt201-p1udt471)p1u_9172 Units=km Length=0.001 bus1=p1udt201-p1udt471xxx.2 bus2=p1udt471.2 switch=y enabled=y phases=1 Linecode=padswitch_1_1_1

New Line.padswitch(r:p1umv10-p1umv5)p1u_9175 Units=km Length=0.001 bus1=p1umv10.1.2.3 bus2=p1umv10-p1umv5x.1.2.3 switch=y enabled=y phases=3 Linecode=padswitch_3_3

New Line.padswitch(r:p1umv10-p1umv5)p1u_9176 Units=km Length=0.001 bus1=p1umv10-p1umv5xx.1.2.3 bus2=p1umv5.1.2.3 switch=y enabled=y phases=3 Linecode=padswitch_3_3

New Line.padswitch(r:p1udt62-p1umv10)p1u_9177 Units=km Length=0.001 bus1=p1udt62.1.2.3 bus2=p1udt62-p1umv10x.1.2.3 switch=y enabled=y phases=3 Linecode=padswitch_3_3

New Line.padswitch(r:p1udt62-p1umv10)p1u_9178 Units=km Length=0.001 bus1=p1udt62-p1umv10xx.1.2.3 bus2=p1umv10.1.2.3 switch=y enabled=y phases=3 Linecode=padswitch_3_3

New Line.padswitch(r:p1udt175-p1umv5)p1u_9167 Units=km Length=0.001 bus1=p1umv5.1.2.3 bus2=p1udt175-p1umv5xx.1.2.3 switch=y enabled=y phases=3 Linecode=padswitch_3_3

New Line.padswitch(r:p1udt175-p1umv5)p1u_9168 Units=km Length=0.001 bus1=p1udt175-p1umv5x.1.2.3 bus2=p1udt175.1.2.3 switch=y enabled=y phases=3 Linecode=padswitch_3_3

New Line.padswitch(r:p1udt201-p1udt454)p1u_9169 Units=km Length=0.001 bus1=p1udt201.1.2.3 bus2=p1udt201-p1udt454x.1.2.3 switch=y enabled=y phases=3 Linecode=padswitch_3_3

New Line.padswitch(r:p1udt201-p1udt454)p1u_9170 Units=km Length=0.001 bus1=p1udt201-p1udt454xx.1.2.3 bus2=p1udt454.1.2.3 switch=y enabled=y phases=3 Linecode=padswitch_3_2_3

New Line.padswitch(r:p1udt201-p1umv5)p1u_9173 Units=km Length=0.001 bus1=p1umv5.1.2.3 bus2=p1udt201-p1umv5xx.1.2.3 switch=y enabled=y phases=3 Linecode=padswitch_3_3

New Line.padswitch(r:p1udt201-p1umv5)p1u_9174 Units=km Length=0.001 bus1=p1udt201-p1umv5x.1.2.3 bus2=p1udt201.1.2.3 switch=y enabled=y phases=3 Linecode=padswitch_3_3

New Line.padswitch(r:p1udt201-p1umv7)p1u_11912 Units=km Length=0.001 bus1=p1udt201.1.2.3 bus2=p1udt201-p1umv7x.1.2.3 switch=y enabled=n phases=3 Linecode=padswitch_3_3

New Line.padswitch(r:p1udt175-p1udt258)p1u_11919 Units=km Length=0.001 bus1=p1udt258.1.2.3 bus2=p1udt175-p1udt258xx.1.2.3 switch=y enabled=n phases=3 Linecode=padswitch_3_2_3_1

New Line.padswitch(r:p1udt175-p1udt258)p1u_11920 Units=km Length=0.001 bus1=p1udt175-p1udt258x.1.2.3 bus2=p1udt175.1.2.3 switch=y enabled=n phases=3 Linecode=padswitch_3_3

New Line.padswitch(r:p1udt258-p1udt447)p1u_11935 Units=km Length=0.001 bus1=p1udt258-p1udt447x.1.2.3 bus2=p1udt258.1.2.3 switch=y enabled=n phases=3 Linecode=padswitch_3_2_3_1

New Line.fuse(r:p1udt104-p1udt2)p1u_11961 Units=km Length=0.001 bus1=p1udt104.2 bus2=p1udt104-p1udt2x.2 switch=n enabled=y phases=1 Linecode=fuse_1_1

New Fuse.Fuse_fuse(r:p1udt104-p1udt2)p1u_11961 monitoredobj=Line.fuse(r:p1udt104-p1udt2)p1u_11961 enabled=y ratedcurrent=100.0

New Line.fuse(r:p1udt201-p1udt471)p1u_11975 Units=km Length=0.001 bus1=p1udt201.2 bus2=p1udt201-p1udt471x.2 switch=n enabled=y phases=1 Linecode=fuse_1_5_1

New Fuse.Fuse_fuse(r:p1udt201-p1udt471)p1u_11975 monitoredobj=Line.fuse(r:p1udt201-p1udt471)p1u_11975 enabled=y ratedcurrent=100.0

New Line.goab_disswitch(r:p1udt61-p1umv9)p1u_12229 Units=km Length=0.001 bus1=p1udt61.1.2.3 bus2=p1udt61-p1umv9x.1.2.3 switch=y enabled=y phases=3 Linecode=goab_disswitch_3_3

New Line.goab_disswitch(r:p1udt258-p1umv9)p1u_12235 Units=km Length=0.001 bus1=p1umv9.1.2.3 bus2=p1udt258-p1umv9x.1.2.3 switch=y enabled=y phases=3 Linecode=goab_disswitch_3_6_3

New Line.recloser_disswitch(r:p1udt228-p1udt62)p1u_12237 Units=km Length=0.001 bus1=p1udt228.1.2.3 bus2=p1udt228-p1udt62x.1.2.3 switch=n enabled=y phases=3 Linecode=recloser_3_3

New Line.goab_disswitch(r:p1udt61-p1udt62)p1u_12239 Units=km Length=0.001 bus1=p1udt62.1.2.3 bus2=p1udt61-p1udt62x.1.2.3 switch=y enabled=y phases=3 Linecode=goab_disswitch_3_6_3

New Line.goab_disswitch(r:p1udt1-p1umv9)p1u_12263 Units=km Length=0.001 bus1=p1umv9.1.2.3 bus2=p1udt1-p1umv9x.1.2.3 switch=y enabled=y phases=3 Linecode=goab_disswitch_3_6_3

New Line.goab_disswitch(r:p1udt258-p1udt259)p1u_12272 Units=km Length=0.001 bus1=p1udt258.1.2.3 bus2=p1udt258-p1udt259x.1.2.3 switch=y enabled=y phases=3 Linecode=goab_disswitch_3_6_3

New Line.l(r:p1udt104-p1uhs0_1247)_disconnect Units=km Length=0.001 bus1=p1udt104-p1uhs0_1247x_b1_1.1.2.3 bus2=p1udt104-p1uhs0_1247x_b2_1.1.2.3 switch=y enabled=y phases=3 Linecode=3P_OH_AL_ACSR_4/0_Penguin_12_47_0_3_3

New Line.l(r:p1udt104-p1uhs0_1247)_cont Units=km Length=1.3104090000000002 bus1=p1udt104-p1uhs0_1247x_b2_1.1.2.3 bus2=p1udt104.1.2.3 switch=n enabled=y phases=3 Linecode=3P_OH_AL_ACSR_4/0_Penguin_12_47_0_3_3

